Version 4.1
SHEET 1 880 680
WIRE 304 -48 224 -48
WIRE 224 -16 224 -48
WIRE 64 32 64 -32
WIRE 64 32 16 32
WIRE 224 96 224 64
WIRE 304 96 224 96
WIRE 496 96 368 96
WIRE 224 112 224 96
WIRE -112 160 -176 160
WIRE -80 160 -112 160
WIRE 64 160 64 112
WIRE 64 160 -16 160
WIRE 160 160 64 160
WIRE 224 256 224 208
FLAG 224 256 0
FLAG 64 -112 0
FLAG 368 -48 0
FLAG -48 32 0
FLAG 496 96 out
FLAG -112 160 in
FLAG 224 -128 0
FLAG -256 160 0
SYMBOL npn 160 112 R0
SYMATTR InstName Q1
SYMATTR Value 2N3904
SYMBOL res 48 16 R0
SYMATTR InstName R1
SYMATTR Value 100k
SYMBOL cap 16 16 R90
WINDOW 0 0 32 VBottom 2
WINDOW 3 32 32 VTop 2
SYMATTR InstName C1
SYMATTR Value 3.3µ
SYMBOL res 208 -32 R0
SYMATTR InstName R2
SYMATTR Value 4.7k
SYMBOL cap 368 -64 R90
WINDOW 0 0 32 VBottom 2
WINDOW 3 32 32 VTop 2
SYMATTR InstName C2
SYMATTR Value 3.3µ
SYMBOL cap -16 144 R90
WINDOW 0 0 32 VBottom 2
WINDOW 3 32 32 VTop 2
SYMATTR InstName C3
SYMATTR Value 3.3µ
SYMBOL voltage 64 -16 R180
WINDOW 0 24 96 Left 2
WINDOW 3 24 16 Left 2
WINDOW 123 0 0 Left 0
WINDOW 39 0 0 Left 0
SYMATTR InstName Vgs
SYMATTR Value 1V
SYMBOL voltage 224 -32 R180
WINDOW 0 24 96 Left 2
WINDOW 3 24 16 Left 2
WINDOW 123 0 0 Left 0
WINDOW 39 0 0 Left 0
SYMATTR InstName Vcc
SYMATTR Value 10
SYMBOL cap 368 80 R90
WINDOW 0 0 32 VBottom 2
WINDOW 3 32 32 VTop 2
SYMATTR InstName C4
SYMATTR Value 3.3µ
SYMBOL voltage -160 160 R90
WINDOW 0 -32 56 VBottom 2
WINDOW 3 32 56 VTop 2
WINDOW 123 60 56 VTop 2
WINDOW 39 0 0 Left 0
SYMATTR InstName V1
SYMATTR Value ""
SYMATTR Value2 AC 1
TEXT -272 280 Left 2 !.ac dec 100 1 500meg
