Version 4.1
SHEET 1 984 680
WIRE 96 -128 -384 -128
WIRE 208 -128 176 -128
WIRE 320 -128 208 -128
WIRE 416 -128 416 -256
WIRE 416 -128 384 -128
WIRE 432 -128 416 -128
WIRE 528 -128 528 -256
WIRE 528 -128 512 -128
WIRE 560 -128 528 -128
WIRE 672 -128 560 -128
WIRE 784 -128 672 -128
WIRE 48 0 48 -32
WIRE 208 0 208 -128
WIRE 560 0 560 -128
WIRE -64 80 -80 80
WIRE -16 80 -64 80
WIRE 560 80 272 80
WIRE 560 128 560 80
WIRE -464 160 -512 160
WIRE -384 160 -384 -128
WIRE -384 160 -464 160
WIRE -16 160 -384 160
WIRE 304 160 272 160
WIRE -384 240 -384 160
WIRE -16 240 -384 240
WIRE 304 240 272 240
WIRE 352 240 304 240
WIRE 448 240 432 240
WIRE 784 240 784 128
WIRE 448 288 448 240
WIRE 128 384 128 320
WIRE 560 512 560 208
FLAG 368 160 0
FLAG 560 512 0
FLAG 304 304 0
FLAG 128 384 0
FLAG 784 240 0
FLAG -80 80 ISP
FLAG 416 -256 ISP
FLAG 48 -32 ISN
FLAG 528 -256 ISN
FLAG -64 16 0
FLAG -384 304 0
FLAG -592 160 0
FLAG 448 368 0
FLAG 672 -128 out
FLAG -464 160 in
SYMBOL PowerProducts\\LT1618 128 160 R0
SYMATTR InstName U1
SYMBOL res 544 -16 R0
SYMATTR InstName R1
SYMATTR Value 2Meg
SYMBOL res 544 112 R0
SYMATTR InstName R2
SYMATTR Value 160k
SYMBOL cap 368 144 R90
WINDOW 0 0 32 VBottom 2
WINDOW 3 32 32 VTop 2
SYMATTR InstName C1
SYMATTR Value 0.1µ
SYMBOL res 448 224 R90
WINDOW 0 0 56 VBottom 2
WINDOW 3 32 56 VTop 2
SYMATTR InstName R3
SYMATTR Value 5.1k
SYMBOL cap 288 240 R0
SYMATTR InstName C2
SYMATTR Value 0.1µ
SYMBOL voltage 448 272 R0
WINDOW 0 32 56 VTop 2
WINDOW 3 -79 162 Bottom 2
WINDOW 123 0 0 Left 0
WINDOW 39 0 0 Left 0
SYMATTR InstName V1
SYMATTR Value PULSE(0 3.3 0 1n 1n 0u 40u)
SYMBOL schottky 320 -112 R270
WINDOW 0 32 32 VTop 2
WINDOW 3 0 32 VBottom 2
SYMATTR InstName D1
SYMBOL res 528 -144 R90
WINDOW 0 0 56 VBottom 2
WINDOW 3 32 56 VTop 2
SYMATTR InstName R4
SYMATTR Value 2.49
SYMBOL diode 768 -128 R0
WINDOW 3 64 42 Left 2
SYMATTR InstName D2
SYMATTR Value QTLP690C
SYMBOL diode 768 -64 R0
WINDOW 3 68 46 Left 2
SYMATTR InstName D3
SYMATTR Value QTLP690C
SYMBOL diode 768 0 R0
WINDOW 3 68 46 Left 2
SYMATTR InstName D4
SYMATTR Value QTLP690C
SYMBOL diode 768 64 R0
WINDOW 3 70 55 Left 2
SYMATTR InstName D5
SYMATTR Value QTLP690C
SYMBOL ind 192 -144 R90
WINDOW 0 5 56 VBottom 2
WINDOW 3 32 56 VTop 2
SYMATTR InstName L1
SYMATTR Value 4.7µ
SYMBOL cap -80 16 R0
SYMATTR InstName C3
SYMATTR Value 1µ
SYMBOL cap -400 240 R0
SYMATTR InstName C4
SYMATTR Value 4.7µ
SYMBOL voltage -496 160 R90
WINDOW 0 -32 56 VBottom 2
WINDOW 3 32 56 VTop 2
WINDOW 123 0 0 Left 0
WINDOW 39 0 0 Left 0
SYMATTR InstName V2
SYMATTR Value 2.5V
TEXT -384 536 Left 2 !.tran 5m
