* C:\Users\ilike\LTspice-projects\MOSFET_Op_amp_Isrc_testing.asc
* Generated by LTspice 24.1.10 for Windows.
M1 N002 Vin- N003 0 NMOS1 l=300n w=300n
M2 N001 Vin+ N003 0 NMOS1 l=300n w=300n
<<<<<<< HEAD:MOSFET_Op_amp_Isrc_testing.net
I1 N003 0 50µ
V1 Vdd 0 5
V2 Vin+ 0 2.5
=======
V1 Vdd 0 5
V2 Vin+ 0 4.5
>>>>>>> 26d6239fdaf81edb22033ac5f8536087019b3cba:MOSFET_Op_amp.net
C1 Vin- N001 4.4pf
I2 Vin- 0 139µ
M3 N002 N002 Vdd Vdd PMOS1 l=300n w=600n
M4 N001 N002 Vdd Vdd PMOS1 l=300n w=600n
M6 Vin- N001 Vdd Vdd PMOS1 l=300n w=3300n
C2 Vin- 0 20pf
V3 NC_01 0 2.5
.model NMOS NMOS
.model PMOS PMOS
.lib C:\Users\ilike\AppData\Local\LTspice\lib\cmp\standard.mos
.dc V2 0 5 0.01
* Output Feedback For Buffer
<<<<<<< HEAD:MOSFET_Op_amp_Isrc_testing.net
.model NMOS1 NMOS (LEVEL=1 VTO=0.6  KP=200u LAMBDA=0.02)
.model PMOS1 PMOS (LEVEL=1 VTO=-0.6 KP=100u LAMBDA=0.02)
* .op
=======
.model NMOS1 NMOS (LEVEL=1 VTO=0.79  KP=200u LAMBDA=0.02)
.model PMOS1 PMOS (LEVEL=1 VTO=-1.04 KP=100u LAMBDA=0.02)
>>>>>>> 26d6239fdaf81edb22033ac5f8536087019b3cba:MOSFET_Op_amp.net
.backanno
.end
